data/rfi_simulation/der050/ckt7_Mon_rfi_08_der050.csv
fault_bus,fault_type,fault_R_ohm,Va_mag_pu,Va_ang_deg,Vb_mag_pu,Vb_ang_deg,Vc_mag_pu,Vc_ang_deg,Ia_mag_A,Ia_ang_deg,Ib_mag_A,Ib_ang_deg,Ic_mag_A,Ic_ang_deg
318412,SLG,0,0.266385,-88.7158,1.182287,-139.2436,0.998508,96.0101,4.3068,-69.0127,7.8615,-156.5847,9.1225,51.5591
318412,SLG,10,1.108374,-24.6556,1.108682,-144.3517,1.105267,95.3916,8.5415,-52.4945,8.5604,-172.4676,8.5544,67.4089
318412,SLG,20,1.108333,-24.6337,1.10872,-144.3534,1.105276,95.3942,8.5415,-52.4793,8.5614,-172.4639,8.5535,67.4128
318412,SLG,30,1.108319,-24.6264,1.108733,-144.354,1.105279,95.395,8.5415,-52.4742,8.5618,-172.4627,8.5531,67.414
318412,SLG,40,1.108312,-24.6227,1.108739,-144.3543,1.105281,95.3955,8.5415,-52.4717,8.5619,-172.4621,8.553,67.4147
318412,LL,0,0.244699,-110.8354,0.163402,178.2919,1.047524,99.1765,5.1637,-112.4244,2.6056,-122.4356,7.7429,64.2219
318412,LL,10,1.108355,-24.6608,1.108764,-144.3957,1.10519,95.3951,8.5434,-52.5023,8.5604,-172.498,8.5525,67.4014
318412,LL,20,1.108323,-24.6363,1.108761,-144.3754,1.105238,95.3959,8.5425,-52.4832,8.5614,-172.4791,8.5525,67.409
318412,LL,30,1.108313,-24.6281,1.10876,-144.3686,1.105254,95.3962,8.5422,-52.4768,8.5617,-172.4728,8.5525,67.4116
318412,LL,40,1.108307,-24.624,1.10876,-144.3653,1.105262,95.3963,8.542,-52.4736,8.5619,-172.4697,8.5525,67.4128
318412,3LG,0,0.142627,-101.8662,0.142626,138.3395,0.142391,18.062,1.2066,-129.7183,1.2101,110.2989,1.2087,-9.8528
318412,3LG,10,1.108279,-24.6574,1.108745,-144.4007,1.105273,95.3511,8.5414,-52.5097,8.5623,-172.5058,8.5524,67.371
318412,3LG,20,1.108285,-24.6346,1.108752,-144.3779,1.105279,95.3739,8.5415,-52.4869,8.5624,-172.483,8.5525,67.3938
318412,3LG,30,1.108287,-24.627,1.108754,-144.3703,1.105282,95.3815,8.5415,-52.4793,8.5624,-172.4754,8.5525,67.4014
318412,3LG,40,1.108288,-24.6232,1.108755,-144.3665,1.105283,95.3853,8.5415,-52.4755,8.5624,-172.4716,8.5525,67.4052
243937,SLG,0,0.304787,-94.7078,1.526689,-168.7252,1.617269,115.2298,8.5899,-60.1686,8.8722,-177.4758,9.0872,59.6574
243937,SLG,10,1.10236,-24.8567,1.112317,-144.5207,1.106292,95.6393,8.5344,-52.5756,8.5535,-172.4671,8.5579,67.3679
243937,SLG,20,1.105317,-24.7345,1.110544,-144.4382,1.105785,95.5185,8.538,-52.52,8.5579,-172.4637,8.5552,67.3922
243937,SLG,30,1.106307,-24.6937,1.10995,-144.4106,1.105618,95.478,8.5391,-52.5014,8.5594,-172.4626,8.5543,67.4003
243937,SLG,40,1.106802,-24.6732,1.109653,-144.3967,1.105534,95.4577,8.5397,-52.4921,8.5602,-172.462,8.5539,67.4044
243937,LL,0,0.160303,-123.092,0.148934,-145.4962,1.513678,95.0985,5.5888,-115.3156,5.5178,-118.5767,11.1022,63.0642
243937,LL,10,1.103365,-24.6151,1.106372,-144.7646,1.10982,95.4731,8.5399,-52.6253,8.5462,-172.5798,8.5489,67.3608
243937,LL,20,1.105814,-24.6132,1.107563,-144.5607,1.107564,95.4353,8.5407,-52.5447,8.5543,-172.5201,8.5507,67.3885
243937,LL,30,1.106636,-24.6127,1.10796,-144.4923,1.106807,95.4226,8.541,-52.5179,8.557,-172.5002,8.5513,67.3979
243937,LL,40,1.107049,-24.6124,1.10816,-144.4581,1.106428,95.4162,8.5411,-52.5044,8.5584,-172.4902,8.5516,67.4026
243937,3LG,0,0.035285,-85.3597,0.035282,154.829,0.035231,34.5665,0.2985,-113.2182,0.2994,126.7957,0.299,6.6509
243937,3LG,10,1.106893,-24.78,1.107358,-144.5237,1.103896,95.2283,8.5308,-52.6325,8.5516,-172.6286,8.5417,67.2482
243937,3LG,20,1.107593,-24.6959,1.108059,-144.4395,1.104592,95.3125,8.5362,-52.5483,8.557,-172.5445,8.5471,67.3324
243937,3LG,30,1.107826,-24.6679,1.108292,-144.4114,1.104823,95.3405,8.538,-52.5203,8.5588,-172.5164,8.5489,67.3605
243937,3LG,40,1.107943,-24.6539,1.108408,-144.3973,1.104939,95.3546,8.5388,-52.5062,8.5597,-172.5024,8.5498,67.3745
157347,SLG,0,0.46543,-29.5929,1.267299,-158.6146,1.35152,105.9553,8.8797,-54.2659,9.3147,-172.9828,9.2806,64.0644
157347,SLG,10,1.101911,-25.1858,1.114432,-144.428,1.103682,95.6882,8.5292,-52.7,8.5442,-172.483,8.5647,67.3222
157347,SLG,20,1.105111,-24.9009,1.111617,-144.3908,1.104454,95.5429,8.5355,-52.5829,8.5533,-172.4721,8.5587,67.3694
157347,SLG,30,1.106173,-24.805,1.110669,-144.3787,1.104725,95.4943,8.5375,-52.5435,8.5563,-172.4683,8.5566,67.3852
157347,SLG,40,1.106704,-24.7569,1.110193,-144.3727,1.104862,95.4699,8.5385,-52.5238,8.5578,-172.4663,8.5556,67.393
157347,LL,0,0.502305,-28.6874,0.453726,-153.2862,1.344075,93.719,6.5673,-79.5836,6.568,-150.7167,10.6848,64.8475
157347,LL,10,1.10034,-24.8944,1.107967,-145.0011,1.109343,95.6124,8.5419,-52.7959,8.5318,-172.7229,8.5463,67.2992
157347,LL,20,1.104283,-24.7551,1.10841,-144.6798,1.10731,95.5068,8.5418,-52.6306,8.5472,-172.5922,8.5495,67.3572
157347,LL,30,1.105612,-24.7078,1.108537,-144.572,1.106634,95.4706,8.5417,-52.5753,8.5523,-172.5484,8.5505,67.3768
157347,LL,40,1.106279,-24.6839,1.108596,-144.5179,1.106296,95.4524,8.5417,-52.5475,8.5548,-172.5264,8.551,67.3867
157347,3LG,0,0.488869,-32.6065,0.488825,-152.4122,0.488021,87.3094,4.1357,-60.4626,4.1478,179.5477,4.1424,59.3982
157347,3LG,10,1.105932,-24.969,1.106407,-144.713,1.102946,95.0396,8.5234,-52.8214,8.5443,-172.8177,8.5343,67.0592
157347,3LG,20,1.107121,-24.791,1.107591,-144.5346,1.104124,95.2176,8.5325,-52.6433,8.5534,-172.6395,8.5435,67.2374
157347,3LG,30,1.107513,-24.7313,1.107982,-144.4749,1.104513,95.2772,8.5356,-52.5837,8.5564,-172.5799,8.5465,67.297
157347,3LG,40,1.107708,-24.7015,1.108177,-144.445,1.104707,95.307,8.5371,-52.5539,8.5579,-172.55,8.548,67.3269
298162,SLG,0,0.167334,-89.2757,1.406199,-157.9929,1.328383,111.8354,7.7685,-58.6317,9.0424,-167.7732,9.8004,60.7175
298162,SLG,10,1.098856,-26.212,1.120902,-144.213,1.096836,95.8721,8.5098,-53.1146,8.5125,-172.528,8.5865,67.1628
298162,SLG,20,1.103645,-25.4168,1.114849,-144.279,1.100963,95.6321,8.5261,-52.7922,8.5374,-172.4965,8.5698,67.2902
298162,SLG,30,1.10521,-25.1496,1.112823,-144.3032,1.102382,95.5531,8.5313,-52.6835,8.5457,-172.4849,8.5641,67.3325
298162,SLG,40,1.105987,-25.0155,1.111808,-144.3158,1.1031,95.5138,8.5339,-52.6289,8.5499,-172.479,8.5613,67.3536
298162,LL,0,0.106883,-137.1324,0.104404,-142.7457,1.397224,96.7218,5.5674,-114.5094,5.4612,-114.9192,11.0285,65.2876
298162,LL,10,1.090409,-25.7397,1.111134,-145.8098,1.109072,96.0082,8.546,-53.3698,8.4812,-173.1955,8.5362,67.094
298162,LL,20,1.09931,-25.1831,1.110117,-145.0839,1.107073,95.7078,8.544,-52.9191,8.5222,-172.8293,8.5447,67.2528
298162,LL,30,1.102296,-24.9943,1.109702,-144.8413,1.106453,95.6053,8.5433,-52.7679,8.5357,-172.7066,8.5474,67.3069
298162,LL,40,1.103792,-24.8993,1.109481,-144.7199,1.106152,95.5536,8.5429,-52.6921,8.5424,-172.6451,8.5487,67.3341
298162,3LG,0,0.006266,-94.5109,0.006267,145.6358,0.006257,25.4479,0.053,-122.3698,0.0532,117.6233,0.0531,-2.4882
298162,3LG,10,1.102312,-25.6002,1.102854,-145.3449,1.099365,94.4109,8.4958,-53.4518,8.5166,-173.4485,8.5066,66.4285
298162,3LG,20,1.105335,-25.1073,1.105839,-144.8513,1.102358,94.9025,8.5189,-52.9593,8.5398,-172.9557,8.5298,66.9213
298162,3LG,30,1.106328,-24.9425,1.10682,-144.6862,1.103341,95.067,8.5265,-52.7945,8.5474,-172.7908,8.5374,67.0861
298162,3LG,40,1.106822,-24.8599,1.107307,-144.6036,1.10383,95.1493,8.5303,-52.712,8.5512,-172.7083,8.5412,67.1686
165448,SLG,0,0.160559,-89.5207,1.411236,-157.7625,1.322683,112.0503,7.7186,-57.7884,9.0875,-167.5734,9.7301,60.7105
165448,SLG,10,1.098685,-26.3445,1.121706,-144.1768,1.095824,95.8903,8.5075,-53.1663,8.5086,-172.5339,8.5892,67.1433
165448,SLG,20,1.103577,-25.4836,1.115248,-144.26,1.100444,95.6404,8.525,-52.8184,8.5354,-172.4998,8.5713,67.2806
165448,SLG,30,1.105169,-25.1942,1.113087,-144.2903,1.102033,95.5585,8.5306,-52.701,8.5444,-172.4873,8.5651,67.3261
165448,SLG,40,1.105957,-25.0491,1.112006,-144.306,1.102837,95.5178,8.5334,-52.6421,8.5489,-172.4807,8.562,67.3488
165448,LL,0,0.103008,-137.9009,0.100762,-143.2979,1.397549,96.8697,5.5474,-114.2952,5.4486,-114.6665,10.996,65.5208
165448,LL,10,1.08922,-25.8544,1.111724,-145.9063,1.108892,96.0623,8.5468,-53.4404,8.4751,-173.2555,8.535,67.0684
165448,LL,20,1.098721,-25.2417,1.110437,-145.1319,1.106959,95.7353,8.5445,-52.9547,8.5192,-172.8595,8.5441,67.2398
165448,LL,30,1.101904,-25.0337,1.109922,-144.8732,1.106371,95.6237,8.5436,-52.7917,8.5337,-172.7268,8.547,67.2981
165448,LL,40,1.103499,-24.929,1.109647,-144.7437,1.106089,95.5674,8.5431,-52.71,8.5409,-172.6603,8.5484,67.3275
165448,3LG,0,0.005805,-94.8984,0.005805,145.244,0.005796,25.0636,0.0491,-122.7575,0.0492,117.2338,0.0492,-2.8746
165448,3LG,10,1.101906,-25.6792,1.102461,-145.4239,1.098964,94.3324,8.4927,-53.5306,8.5135,-173.5273,8.5035,66.3497
165448,3LG,20,1.105138,-25.1471,1.105649,-144.891,1.102163,94.8631,8.5174,-52.9989,8.5383,-172.9953,8.5283,66.8816
165448,3LG,30,1.106198,-24.969,1.106694,-144.7127,1.103213,95.0406,8.5255,-52.8209,8.5464,-172.8173,8.5364,67.0596
165448,3LG,40,1.106725,-24.8798,1.107213,-144.6235,1.103734,95.1295,8.5295,-52.7319,8.5504,-172.7281,8.5405,67.1488
165449,SLG,0,0.092845,-94.9418,1.448703,-157.6185,1.319433,113.6624,7.5578,-51.9922,9.4268,-166.6232,9.3059,60.9603
165449,SLG,10,1.0982,-27.6984,1.130357,-143.8015,1.085129,96.0913,8.4893,-53.6805,8.4708,-172.6052,8.6175,66.963
165449,SLG,20,1.10361,-26.1652,1.119473,-144.0589,1.094942,95.729,8.5172,-53.0791,8.5166,-172.5411,8.5861,67.1933
165449,SLG,30,1.105254,-25.6496,1.115879,-144.1533,1.098333,95.6148,8.5257,-52.8755,8.5319,-172.516,8.5751,67.2686
165449,SLG,40,1.106045,-25.3909,1.11409,-144.2021,1.10005,95.559,8.5298,-52.7732,8.5395,-172.5027,8.5695,67.3059
165449,LL,0,0.061249,-146.3125,0.060301,-151.6716,1.418059,97.2887,5.4684,-112.806,5.4084,-112.9661,10.8768,67.1143
165449,LL,10,1.077812,-27.013,1.119408,-146.89,1.107289,96.6426,8.5617,-54.1191,8.4223,-173.8733,8.5244,66.8141
165449,LL,20,1.09318,-25.8375,1.114599,-145.6148,1.105782,96.028,8.5527,-53.2983,8.4936,-173.1696,8.5399,67.1096
165449,LL,30,1.098251,-25.4344,1.112765,-145.1929,1.1055,95.8191,8.5493,-53.0217,8.5168,-172.9337,8.5444,67.2107
165449,LL,40,1.100775,-25.2308,1.111806,-144.9827,1.105403,95.7141,8.5474,-52.8829,8.5283,-172.8156,8.5466,67.2618
165449,3LG,0,0.00337,-99.4612,0.00337,140.6251,0.003366,20.5274,0.0285,-127.3293,0.0286,112.6451,0.0286,-7.4321
165449,3LG,10,1.099017,-26.4644,1.099765,-146.2085,1.09613,93.5558,8.4711,-54.312,8.4919,-174.31,8.4818,65.5674
165449,3LG,20,1.103781,-25.5421,1.10439,-145.2854,1.100829,94.4725,8.5073,-53.3918,8.5281,-173.3889,8.5181,66.4882
165449,3LG,30,1.105313,-25.2328,1.105875,-144.9761,1.102342,94.7798,8.5189,-53.0834,8.5398,-173.0802,8.5298,66.7969
165449,3LG,40,1.106068,-25.0779,1.106607,-144.8212,1.103088,94.9337,8.5246,-52.9289,8.5455,-172.9255,8.5355,66.9515
287274,SLG,0,0.126112,-71.0327,1.458495,-155.7428,1.272198,114.1089,7.8109,-49.7288,9.6496,-167.0039,9.222,61.8316
287274,SLG,10,1.092601,-28.5998,1.13625,-143.5604,1.078058,96.2353,8.4495,-54.0135,8.4396,-172.5667,8.6285,66.7663
287274,SLG,20,1.101098,-26.6278,1.122345,-143.9228,1.091203,95.7892,8.4984,-53.2541,8.5007,-172.5287,8.5926,67.0958
287274,SLG,30,1.103646,-25.9605,1.117772,-144.059,1.095797,95.6521,8.5135,-52.994,8.5212,-172.5093,8.5797,67.2039
287274,SLG,40,1.104865,-25.6251,1.115501,-144.1301,1.098132,95.5859,8.5208,-52.8628,8.5315,-172.4984,8.573,67.2575
287274,LL,0,0.113962,-69.6645,0.122199,176.4636,1.406948,97.9749,6.2334,-105.4093,4.819,-120.1411,10.9627,68.1725
287274,LL,10,1.064956,-27.771,1.119192,-147.5624,1.106619,97.0356,8.5385,-54.6384,8.3537,-174.2062,8.5027,66.6534
287274,LL,20,1.086862,-26.2412,1.114853,-145.946,1.105037,96.2287,8.542,-53.5676,8.4597,-173.3426,8.5301,67.0228
287274,LL,30,1.094072,-25.7091,1.113013,-145.4122,1.104909,95.9534,8.5423,-53.2035,8.4943,-173.0504,8.5381,67.1516
287274,LL,40,1.097654,-25.4388,1.112021,-145.1466,1.104923,95.8149,8.5423,-53.02,8.5115,-172.9036,8.5419,67.2169
287274,3LG,0,0.114209,-65.3237,0.114226,174.7262,0.114139,54.6711,0.9675,-93.2053,0.969,146.7659,0.9678,26.7054
287274,3LG,10,1.091946,-26.9848,1.09287,-146.7308,1.089151,93.0434,8.4173,-54.8297,8.4379,-174.8291,8.4277,65.0492
287274,3LG,20,1.100305,-25.8103,1.101005,-145.5542,1.097392,94.2086,8.4808,-53.6585,8.5016,-173.6563,8.4915,66.2213
287274,3LG,30,1.10301,-25.4134,1.103633,-145.157,1.100063,94.6021,8.5014,-53.2629,8.5222,-173.2602,8.5122,66.6172
287274,3LG,40,1.104347,-25.214,1.104931,-144.9575,1.101384,94.7998,8.5116,-53.0642,8.5324,-173.0611,8.5224,66.8161
283954,SLG,0,0.001255,-103.8611,1.477763,-157.073,1.306623,114.9342,9036.5725,-103.8203,9.8884,-165.3463,8.7448,61.1912
283954,SLG,10,1.086012,-29.6846,1.14374,-143.3355,1.070438,96.4613,789.5243,-29.9399,8.4034,-172.5366,8.6433,66.5456
283954,SLG,20,1.098115,-27.1737,1.125943,-143.7927,1.08719,95.8852,402.9166,-27.7077,8.4824,-172.5222,8.601,66.9878
283954,SLG,30,1.10173,-26.325,1.120132,-143.9683,1.093082,95.7123,272.0132,-27.1326,8.509,-172.5068,8.5855,67.1325
283954,SLG,40,1.103456,-25.8986,1.117255,-144.0606,1.096082,95.6295,206.2252,-26.9748,8.5223,-172.4972,8.5775,67.2042
283954,LL,0,0.001654,-79.4586,0.001858,130.4009,1.435401,97.4852,11913.1325,-79.472,13377.7515,130.4211,10.791,69.4994
283954,LL,10,1.050274,-28.6353,1.119537,-148.4223,1.107132,97.4946,763.7762,-28.9215,813.4539,-148.6798,8.4793,66.4578
283954,LL,20,1.079728,-26.6946,1.115367,-146.3629,1.104769,96.4604,396.2875,-27.2582,409.0177,-146.9021,8.5197,66.919
283954,LL,30,1.089373,-26.0156,1.113426,-145.6868,1.104611,96.1076,269.0412,-26.8522,274.7463,-146.5027,8.5315,67.0812
283954,LL,40,1.094153,-25.6703,1.112355,-145.3512,1.104654,95.9303,204.5463,-26.7749,207.7719,-146.4386,8.5371,67.1638
283954,3LG,0,0.001959,-93.6229,0.001959,146.3775,0.001959,26.3758,14102.0356,-93.6229,14104.9099,146.3774,14101.6785,26.3758
283954,3LG,10,1.084703,-27.6157,1.085862,-147.3614,1.081998,92.4237,788.342,-27.8995,789.1778,-147.648,786.3931,92.1373
283954,3LG,20,1.096754,-26.1303,1.097574,-145.8734,1.093875,93.8944,402.3016,-26.6927,402.5978,-146.4415,401.2649,93.3272
283954,3LG,30,1.10066,-25.6278,1.101363,-145.3706,1.097734,94.3917,271.6723,-26.4636,271.8422,-146.215,270.97,93.5488
283954,3LG,40,1.102591,-25.3751,1.103235,-145.118,1.099643,94.6416,206.0065,-26.4793,206.1239,-146.2335,205.4763,93.5282
283956,SLG,0,0.220035,-76.0239,1.467047,-153.7872,1.222648,114.4946,8238.8417,-92.7298,9.813,-164.6614,8.6717,60.4782
283956,SLG,10,1.085985,-29.5871,1.143172,-143.3599,1.071142,96.4482,775.3148,-30.153,8.4288,-172.5248,8.6294,66.323
283956,SLG,20,1.098089,-27.1486,1.12581,-143.7998,1.087378,95.8829,399.2338,-27.8393,8.47,-172.4263,8.5951,66.8687
283956,SLG,30,1.101716,-26.3137,1.120074,-143.9717,1.093167,95.7113,270.3484,-27.2259,8.5004,-172.444,8.5818,67.0514
283956,SLG,40,1.103447,-25.8922,1.117222,-144.0625,1.09613,95.629,205.2758,-27.0468,8.5157,-172.4505,8.5749,67.1428
283956,LL,0,0.212996,-66.9583,0.246548,167.2484,1.394571,99.2002,10543.9428,-70.3326,11717.1951,141.2713,10.6457,69.6556
283956,LL,10,1.051413,-28.5533,1.118526,-148.3516,1.107232,97.4453,751.6893,-28.8331,801.1332,-149.1099,8.4789,66.3049
283956,LL,20,1.080002,-26.672,1.115087,-146.3459,1.10483,96.4479,392.9628,-27.2394,405.9709,-147.1365,8.5012,66.8968
283956,LL,30,1.089494,-26.0052,1.113298,-145.6794,1.104644,96.102,267.5058,-26.8467,273.3904,-146.6621,8.5191,67.0634
283956,LL,40,1.094221,-25.6643,1.112283,-145.347,1.104675,95.9272,203.6598,-26.7741,207.0038,-146.5585,8.5278,67.1492
283956,3LG,0,0.236055,-67.6978,0.236281,172.336,0.235969,52.3194,12352.8892,-83.6425,12361.573,156.3667,12351.4353,36.3498
283956,3LG,10,1.084824,-27.5721,1.085966,-147.3179,1.082116,92.4663,778.1656,-28.0709,778.9741,-147.8219,776.2864,91.9663
283956,3LG,20,1.096784,-26.1189,1.097598,-145.8621,1.093904,93.9055,399.6261,-26.7868,399.9245,-146.5373,398.6085,93.2328
283956,3LG,30,1.100674,-25.6226,1.101374,-145.3655,1.097747,94.3968,270.4512,-26.5284,270.6227,-146.2809,269.7578,93.4839
283956,3LG,40,1.102599,-25.3721,1.103242,-145.115,1.09965,94.6446,205.304,-26.5286,205.4224,-146.2836,204.7788,93.4789
189963,SLG,0,0.377492,-48.4374,1.438042,-151.2441,1.160906,112.8195,8.939,-52.1849,9.6717,-169.5851,9.6889,65.4103
189963,SLG,10,1.101599,-30.2132,1.143459,-142.7005,1.059739,96.1027,8.4256,-54.6149,8.3949,-172.6358,8.6606,66.5488
189963,SLG,20,1.10729,-27.4631,1.125174,-143.44,1.081647,95.6652,8.4921,-53.577,8.4782,-172.5875,8.6117,66.9975
189963,SLG,30,1.10817,-26.5224,1.119452,-143.7259,1.089363,95.5561,8.5106,-53.2135,8.5063,-172.554,8.5931,67.1412
189963,SLG,40,1.108409,-26.0481,1.116679,-143.8761,1.093287,95.5088,8.5191,-53.0288,8.5203,-172.5339,8.5834,67.2117
189963,LL,0,0.469566,-41.4636,0.430027,-177.0091,1.3492,99.0298,6.8278,-83.5046,5.1462,-153.8648,9.8347,66.9687
189963,LL,10,1.054151,-29.487,1.135668,-148.4696,1.097393,97.8871,8.5609,-55.346,8.3028,-174.9679,8.4829,66.3498
189963,LL,20,1.083033,-27.1998,1.124165,-146.3437,1.098666,96.6299,8.5582,-53.9567,8.4364,-173.7467,8.5249,66.8568
189963,LL,30,1.091935,-26.3684,1.119411,-145.6629,1.100278,96.2116,8.5544,-53.4706,8.4792,-173.3248,8.5358,67.0389
189963,LL,40,1.096216,-25.9406,1.116882,-145.3289,1.101309,96.0045,8.5519,-53.2232,8.5004,-173.1112,8.5407,67.1318
189963,3LG,0,0.480612,-50.2566,0.48086,-170.2624,0.480953,69.7657,4.0743,-78.1588,4.0789,161.8224,4.0754,41.7754
189963,3LG,10,1.09001,-27.8775,1.091709,-147.6244,1.08745,92.1947,8.4056,-55.707,8.4254,-175.7116,8.4149,64.1739
189963,3LG,20,1.099747,-26.2929,1.100836,-146.0337,1.096883,93.7496,8.478,-54.1315,8.4983,-174.1321,8.4881,65.7491
189963,3LG,30,1.102742,-25.7432,1.103621,-145.4839,1.099811,94.2882,8.5002,-53.5859,8.5208,-173.5851,8.5106,66.2947
189963,3LG,40,1.104186,-25.4643,1.104961,-145.2053,1.101229,94.5615,8.511,-53.3093,8.5316,-173.3077,8.5215,66.5713
181977,SLG,0,0.478141,-45.8445,1.413928,-149.7884,1.1281,111.3964,9.0368,-53.3606,9.4874,-170.2253,9.7051,65.9398
181977,SLG,10,1.104349,-30.236,1.142661,-142.5736,1.057998,95.9951,8.4261,-54.6225,8.3945,-172.6389,8.6612,66.5486
181977,SLG,20,1.109198,-27.4858,1.12457,-143.3643,1.080687,95.5976,8.4936,-53.5889,8.4778,-172.5948,8.6129,66.9991
181977,SLG,30,1.109573,-26.5393,1.118991,-143.6729,1.088712,95.5077,8.512,-53.2229,8.506,-172.5603,8.5941,67.1429
181977,SLG,40,1.109511,-26.0615,1.116309,-143.8355,1.092796,95.4712,8.5203,-53.0364,8.5201,-172.5392,8.5842,67.2133
181977,LL,0,0.559107,-39.5265,0.530748,-171.6232,1.320632,99.3303,7.2156,-77.144,5.9368,-161.5587,9.7801,65.6884
181977,LL,10,1.055075,-29.59,1.137868,-148.423,1.095227,97.9379,8.565,-55.3317,8.3064,-174.9946,8.4816,66.3471
181977,LL,20,1.08393,-27.2849,1.125617,-146.3066,1.097155,96.6488,8.5616,-53.9596,8.4387,-173.7694,8.5253,66.8501
181977,LL,30,1.092661,-26.4319,1.120437,-145.6341,1.099178,96.2213,8.557,-53.4747,8.481,-173.3419,8.5363,67.0336
181977,LL,40,1.096813,-25.9907,1.11767,-145.3056,1.100451,96.0105,8.554,-53.2271,8.5017,-173.1248,8.5411,67.1276
181977,3LG,0,0.574611,-46.2325,0.575089,-166.2303,0.57509,73.803,5.3213,-74.0901,5.3317,165.8914,5.325,45.8035
181977,3LG,10,1.090699,-27.8868,1.092485,-147.6313,1.088119,92.1904,8.4111,-55.7134,8.4309,-175.7187,8.4204,64.167
181977,3LG,20,1.10022,-26.3094,1.101349,-146.0481,1.097327,93.7358,8.4817,-54.1461,8.502,-174.1472,8.4917,65.7342
181977,3LG,30,1.103092,-25.7569,1.103996,-145.496,1.100137,94.2764,8.5029,-53.5983,8.5235,-173.5977,8.5133,66.2821
181977,3LG,40,1.104463,-25.4756,1.105255,-145.2153,1.101485,94.5515,8.5131,-53.3196,8.5338,-173.3182,8.5236,66.5609
181924,SLG,0,0.476888,-37.577,1.411684,-150.2974,1.141352,111.3513,8.9576,-52.6715,9.3315,-169.1219,9.6359,67.2128
181924,SLG,10,1.11302,-30.5683,1.141859,-142.1601,1.051415,95.7241,8.4285,-54.7668,8.3856,-172.6799,8.6709,66.52
181924,SLG,20,1.11434,-27.609,1.123316,-143.157,1.077858,95.4297,8.4982,-53.6507,8.4748,-172.6231,8.618,66.9969
181924,SLG,30,1.113154,-26.6104,1.117962,-143.5365,1.086955,95.3897,8.5157,-53.2609,8.5044,-172.5804,8.5974,67.1444
181924,SLG,40,1.11225,-26.1104,1.115466,-143.7341,1.09153,95.3806,8.5233,-53.0636,8.5191,-172.5547,8.5867,67.2154
181924,LL,0,0.556676,-35.9467,0.498624,-164.1195,1.319664,98.7967,6.9582,-76.499,6.1947,-155.8715,10.1335,66.5725
181924,LL,10,1.055617,-30.1828,1.147319,-148.4378,1.088292,98.2068,8.5789,-55.4227,8.3112,-175.1837,8.4787,66.2618
181924,LL,20,1.085879,-27.5787,1.130063,-146.242,1.092994,96.7212,8.5711,-54.0024,8.4433,-173.8557,8.5268,66.8138
181924,LL,30,1.094338,-26.6229,1.123262,-145.576,1.096324,96.254,8.5639,-53.5018,8.4845,-173.3974,8.5379,67.012
181924,LL,40,1.09821,-26.1315,1.119727,-145.2567,1.098291,96.0291,8.5594,-53.2468,8.5045,-173.1656,8.5426,67.1125
181924,3LG,0,0.54787,-41.5641,0.548266,-161.5581,0.548306,78.472,4.897,-69.4316,4.9062,170.555,4.9006,50.4679
181924,3LG,10,1.092451,-28.0524,1.094384,-147.7846,1.089714,92.0376,8.4246,-55.8704,8.4445,-175.8763,8.4338,64.0098
181924,3LG,20,1.101407,-26.3875,1.102565,-146.1186,1.098389,93.6626,8.4906,-54.22,8.511,-174.2213,8.5006,65.6602
181924,3LG,30,1.103954,-25.8075,1.104866,-145.5414,1.100908,94.2286,8.5094,-53.6462,8.53,-173.6458,8.5197,66.2342
181924,3LG,40,1.105136,-25.513,1.10593,-145.2488,1.102088,94.5161,8.5181,-53.3549,8.5388,-173.3537,8.5286,66.5255
181993,SLG,0,0.516919,-35.9189,1.400275,-149.8951,1.133481,110.7017,8.889,-52.493,9.2478,-169.201,9.5207,67.3149
181993,SLG,10,1.115838,-30.6598,1.141454,-142.0133,1.049155,95.6209,8.4279,-54.8044,8.3829,-172.6867,8.6731,66.509
181993,SLG,20,1.116262,-27.6447,1.122736,-143.0787,1.07685,95.3611,8.4995,-53.6703,8.4738,-172.6319,8.6196,66.9961
181993,SLG,30,1.114543,-26.631,1.117486,-143.4841,1.086326,95.3405,8.517,-53.2737,8.5039,-172.5874,8.5986,67.145
181993,SLG,40,1.113331,-26.1245,1.115074,-143.6949,1.091076,95.3426,8.5244,-53.073,8.5187,-172.5603,8.5875,67.2164
181993,LL,0,0.584487,-34.7332,0.534211,-161.0575,1.308478,98.7897,7.096,-73.7939,6.6091,-157.3651,10.2243,66.239
181993,LL,10,1.055671,-30.3562,1.150266,-148.4391,1.085963,98.3013,8.5826,-55.4388,8.3124,-175.2378,8.4764,66.2419
181993,LL,20,1.086659,-27.6804,1.131635,-146.2119,1.091399,96.7452,8.5743,-54.0137,8.4451,-173.8843,8.5271,66.8024
181993,LL,30,1.095043,-26.6918,1.124289,-145.5491,1.095198,96.2634,8.5665,-53.5097,8.4859,-173.4166,8.5384,67.0048
181993,LL,40,1.098808,-26.1832,1.120483,-145.2341,1.097429,96.0335,8.5614,-53.2528,8.5057,-173.1801,8.543,67.1074
181993,3LG,0,0.576109,-39.2066,0.576566,-159.1887,0.576537,80.8352,5.3444,-67.0604,5.3549,172.9285,5.3488,52.8372
181993,3LG,10,1.093002,-28.0949,1.094953,-147.8217,1.090184,91.9987,8.4287,-55.91,8.4486,-175.9158,8.4379,63.9703
181993,3LG,20,1.101853,-26.4118,1.103,-146.1396,1.098773,93.6396,8.4938,-54.2427,8.5143,-174.244,8.5039,65.6375
181993,3LG,30,1.104293,-25.8241,1.105192,-145.5558,1.101201,94.2125,8.5118,-53.6618,8.5324,-173.6615,8.5222,66.2185
181993,3LG,40,1.105406,-25.5256,1.106188,-145.2597,1.102323,94.5038,8.5201,-53.3668,8.5408,-173.3656,8.5306,66.5135
181994,SLG,0,0.558577,-35.2755,1.388663,-149.3701,1.12297,110.0047,8.8268,-52.4102,9.1798,-169.3895,9.416,67.2689
181994,SLG,10,1.118014,-30.76,1.141346,-141.8817,1.047001,95.5395,8.4273,-54.8368,8.3813,-172.6949,8.675,66.4943
181994,SLG,20,1.117948,-27.6893,1.122301,-143.0047,1.075844,95.3012,8.5004,-53.6927,8.4726,-172.6399,8.6212,66.9932
181994,SLG,30,1.115796,-26.6582,1.1171,-143.434,1.085689,95.2966,8.518,-53.2888,8.5031,-172.5941,8.5998,67.1443
181994,SLG,40,1.114318,-26.1438,1.114749,-143.6572,1.090614,95.3082,8.5254,-53.0842,8.5182,-172.5658,8.5885,67.2163
181994,LL,0,0.616481,-33.7485,0.577429,-159.2229,1.297012,98.8507,7.303,-70.8889,7.0517,-159.5425,10.2703,65.764
181994,LL,10,1.055228,-30.5108,1.152765,-148.4678,1.084128,98.3993,8.5853,-55.4598,8.3119,-175.292,8.4733,66.224
181994,LL,20,1.0872,-27.7814,1.13311,-146.1962,1.089964,96.7738,8.5772,-54.0296,8.4461,-173.9158,8.527,66.7899
181994,LL,30,1.095601,-26.7617,1.125271,-145.5316,1.094161,96.2759,8.5688,-53.5211,8.4868,-173.4383,8.5388,66.9965
181994,LL,40,1.099303,-26.2363,1.121212,-145.2184,1.096627,96.0403,8.5633,-53.2616,8.5064,-173.1966,8.5434,67.1013
181994,3LG,0,0.612432,-37.4719,0.613002,-157.4379,0.61284,82.5782,5.92,-65.3115,5.9322,174.6795,5.9253,54.5822
181994,3LG,10,1.093343,-28.1414,1.095314,-147.8631,1.090451,91.9559,8.4312,-55.9536,8.451,-175.9594,8.4404,63.9268
181994,3LG,20,1.102214,-26.4407,1.103353,-146.1652,1.099073,93.612,8.4964,-54.2701,8.5169,-174.2714,8.5065,65.6102
181994,3LG,30,1.104581,-25.8444,1.105469,-145.5738,1.101445,94.1929,8.5139,-53.6812,8.5345,-173.6808,8.5243,66.1992
181994,3LG,40,1.105641,-25.5411,1.106413,-145.2736,1.102523,94.4887,8.5218,-53.3817,8.5425,-173.3805,8.5323,66.4987
181891,SLG,0,0.624592,-37.3591,1.369199,-148.2543,1.100559,108.7622,8.7638,-52.6962,9.1336,-170.206,9.2888,66.598
181891,SLG,10,1.115211,-30.6157,1.141717,-141.9955,1.048706,95.6227,8.4239,-54.7592,8.3849,-172.6641,8.6692,66.5091
181891,SLG,20,1.116889,-27.6548,1.122671,-143.0418,1.076265,95.3381,8.4993,-53.6683,8.4739,-172.6307,8.6193,66.996
181891,SLG,30,1.115205,-26.6427,1.117361,-143.4538,1.085881,95.3189,8.5174,-53.2762,8.5038,-172.5892,8.5988,67.1456
181891,SLG,40,1.113922,-26.1348,1.114945,-143.6701,1.090727,95.3238,8.525,-53.0762,8.5186,-172.5626,8.5879,67.2172
181891,LL,0,0.670737,-34.5979,0.65262,-159.8213,1.27611,99.1586,7.7541,-67.5499,7.5307,-165.0787,10.0765,64.641
181891,LL,10,1.055226,-30.2315,1.149145,-148.4598,1.086791,98.3153,8.5821,-55.3882,8.3116,-175.2108,8.4727,66.2835
181891,LL,20,1.086717,-27.6972,1.132194,-146.2111,1.090964,96.7671,8.5755,-54.006,8.4459,-173.8908,8.5263,66.8059
181891,LL,30,1.095253,-26.7185,1.124855,-145.5423,1.09471,96.2767,8.5678,-53.5084,8.4867,-173.4249,8.5383,67.0043
181891,LL,40,1.099044,-26.2087,1.12097,-145.2263,1.096991,96.0424,8.5627,-53.2532,8.5064,-173.1877,8.5431,67.1061
181891,3LG,0,0.677814,-37.6484,0.678661,-157.5935,0.678158,82.4126,6.9563,-65.4706,6.9721,174.5171,6.9629,54.4107
181891,3LG,10,1.09304,-28.0554,1.094926,-147.7838,1.090231,92.0332,8.4288,-55.8726,8.4487,-175.878,8.4381,64.0073
181891,3LG,20,1.102072,-26.4118,1.103199,-146.1394,1.098985,93.638,8.4954,-54.2432,8.5159,-174.2443,8.5055,65.6368
181891,3LG,30,1.104499,-25.8285,1.105384,-145.5599,1.101398,94.2072,8.5134,-53.6664,8.534,-173.6659,8.5238,66.2137
181891,3LG,40,1.105586,-25.5305,1.106357,-145.2643,1.102494,94.4982,8.5214,-53.3719,8.5421,-173.3706,8.5319,66.5084
255335,SLG,0,0.625901,-35.8886,1.373685,-148.2711,1.100094,108.9748,8.7414,-52.4474,9.0961,-169.8496,9.2716,66.9785
255335,SLG,10,1.120577,-30.9668,1.141939,-141.6645,1.04304,95.4396,8.43,-54.8603,8.3853,-172.7284,8.6772,66.4583
255335,SLG,20,1.120427,-27.7991,1.12195,-142.8714,1.07381,95.2125,8.5,-53.7395,8.4694,-172.65,8.6241,66.9806
255335,SLG,30,1.117724,-26.7299,1.116689,-143.3415,1.084363,95.229,8.5186,-53.3219,8.5011,-172.6038,8.6021,67.1378
255335,SLG,40,1.115866,-26.1966,1.11437,-143.5869,1.089637,95.2543,8.5261,-53.1096,8.5167,-172.5742,8.5903,67.2123
255335,LL,0,0.679045,-33.0554,0.655613,-158.7664,1.279205,99.1053,7.7962,-66.4655,7.5709,-165.2013,10.0085,65.1458
255335,LL,10,1.053016,-30.7601,1.156475,-148.5727,1.08177,98.5996,8.5865,-55.506,8.3063,-175.3819,8.4657,66.1978
255335,LL,20,1.087363,-27.9723,1.135644,-146.2006,1.087636,96.8468,8.5807,-54.0708,8.4452,-173.9766,8.5259,66.7645
255335,LL,30,1.096079,-26.8988,1.127004,-145.522,1.092409,96.3135,8.572,-53.5521,8.4867,-173.4819,8.5387,66.9786
255335,LL,40,1.099808,-26.3419,1.122513,-145.2065,1.095251,96.0639,8.5661,-53.286,8.5065,-173.2304,8.5436,67.0877
255335,3LG,0,0.68511,-36.4666,0.686035,-156.4035,0.685478,83.6026,7.0723,-64.2854,7.0884,175.7063,7.0795,55.5973
255335,3LG,10,1.093321,-28.228,1.095357,-147.9415,1.090332,91.8768,8.431,-56.0351,8.4508,-176.0407,8.4402,63.8456
255335,3LG,20,1.102525,-26.5032,1.103665,-146.2219,1.099287,93.5526,8.4986,-54.3297,8.519,-174.3309,8.5087,65.5507
255335,3LG,30,1.104877,-25.8901,1.105755,-145.6154,1.101667,94.1489,8.516,-53.725,8.5366,-173.7246,8.5264,66.1554
255335,3LG,40,1.105898,-25.5768,1.106658,-145.3062,1.102722,94.454,8.5236,-53.416,8.5443,-173.4148,8.5341,66.4644
182030,SLG,0,0.643456,-36.6616,1.369603,-147.8871,1.092044,108.6644,8.729,-52.548,9.0889,-170.0736,9.2452,66.7814
182030,SLG,10,1.119982,-30.9185,1.141842,-141.6922,1.043557,95.4515,8.4283,-54.8425,8.3854,-172.7165,8.6756,66.4631
182030,SLG,20,1.120229,-27.7883,1.121963,-142.8788,1.073926,95.2172,8.4998,-53.7338,8.4697,-172.6478,8.6237,66.9812
182030,SLG,30,1.117629,-26.7254,1.1167,-143.3448,1.084412,95.2312,8.5184,-53.3194,8.5012,-172.6028,8.6019,67.138
182030,SLG,40,1.115811,-26.1941,1.114378,-143.5887,1.089663,95.2557,8.526,-53.1083,8.5168,-172.5736,8.5902,67.2124
182030,LL,0,0.693796,-33.0419,0.679681,-159.166,1.274389,99.2613,7.9548,-65.4363,7.7178,-166.8754,9.9243,64.903
182030,LL,10,1.053233,-30.6952,1.155506,-148.55,1.08222,98.5694,8.5852,-55.4877,8.3061,-175.3557,8.4659,66.2128
182030,LL,20,1.087326,-27.9549,1.1354,-146.1987,1.087798,96.8421,8.5802,-54.0659,8.445,-173.9702,8.5257,66.7682
182030,LL,30,1.096048,-26.8911,1.1269,-145.5217,1.092485,96.312,8.5717,-53.5499,8.4866,-173.4791,8.5386,66.9801
182030,LL,40,1.099787,-26.3376,1.122456,-145.2064,1.095294,96.0632,8.5659,-53.2847,8.5064,-173.2288,8.5435,67.0886
182030,3LG,0,0.706238,-36.4472,0.707293,-156.3773,0.706602,83.6274,7.4074,-64.2616,7.4248,175.7296,7.4151,55.6175
182030,3LG,10,1.093186,-28.2028,1.095204,-147.917,1.090203,91.9008,8.4299,-56.0106,8.4497,-176.0161,8.4391,63.8702
182030,3LG,20,1.102473,-26.4967,1.103611,-146.2156,1.09924,93.5589,8.4982,-54.3233,8.5186,-174.3246,8.5083,65.557
182030,3LG,30,1.104851,-25.8872,1.105728,-145.6126,1.101643,94.1517,8.5158,-53.7221,8.5364,-173.7217,8.5262,66.1583
182030,3LG,40,1.105883,-25.5752,1.106642,-145.3046,1.102708,94.4556,8.5235,-53.4144,8.5441,-173.4132,8.534,66.466
182153,SLG,0,0.729274,-37.5989,1.356192,-146.2917,1.059022,107.4752,8.6254,-52.6602,8.9842,-170.6032,9.0823,66.4284
182153,SLG,10,1.12128,-31.7561,1.148968,-141.1808,1.03198,95.5854,8.4398,-54.8767,8.4001,-172.7908,8.684,66.3905
182153,SLG,20,1.124742,-28.2211,1.12296,-142.5182,1.067425,95.0626,8.4913,-53.8922,8.4573,-172.6605,8.6316,66.9178
182153,SLG,30,1.121444,-27.0163,1.116859,-143.0885,1.080079,95.1008,8.515,-53.4339,8.4929,-172.6203,8.6083,67.0999
182153,SLG,40,1.118979,-26.4116,1.11429,-143.3916,1.086436,95.1476,8.5244,-53.1968,8.5106,-172.5902,8.5955,67.1857
182153,LL,0,0.787668,-32.9036,0.777568,-159.7191,1.252454,99.5777,8.8118,-61.3948,8.4066,-173.9333,9.5671,64.3543
182153,LL,10,1.043576,-31.1032,1.161632,-149.1673,1.081643,99.1571,8.5911,-55.6247,8.3079,-175.5262,8.4656,66.0834
182153,LL,20,1.084239,-28.5148,1.142142,-146.3703,1.082726,97.1454,8.5839,-54.2287,8.4327,-174.1628,8.5178,66.6846
182153,LL,30,1.095028,-27.3049,1.131597,-145.5975,1.088348,96.4839,8.5763,-53.6737,8.4792,-173.6178,8.5353,66.9187
182153,LL,40,1.099451,-26.6603,1.125992,-145.2485,1.09195,96.1783,8.5703,-53.3831,8.5012,-173.3367,8.5419,67.0413
182153,3LG,0,0.806895,-36.5728,0.808764,-156.4493,0.806984,83.5353,9.0028,-64.3582,9.0279,175.6292,9.0137,55.4978
182153,3LG,10,1.091348,-28.503,1.09375,-148.2068,1.088392,91.6253,8.4168,-56.2994,8.4365,-176.3048,8.426,63.5824
182153,3LG,20,1.10209,-26.7147,1.103361,-146.4206,1.0987,93.3545,8.4952,-54.5326,8.5156,-174.534,8.5052,65.3483
182153,3LG,30,1.104781,-26.048,1.105714,-145.7636,1.10143,93.9991,8.5151,-53.8769,8.5356,-173.8767,8.5254,66.0038
182153,3LG,40,1.105909,-25.7015,1.106696,-145.4233,1.102614,94.3349,8.5235,-53.5364,8.5441,-173.5353,8.5339,66.3443
182158,SLG,0,0.757561,-37.1889,1.348141,-145.8968,1.052515,106.9196,8.5835,-52.6524,8.9392,-170.7042,9.0232,66.385
182158,SLG,10,1.121347,-32.032,1.151885,-141.0089,1.0279,95.6691,8.4427,-54.8678,8.4052,-172.8011,8.6857,66.3776
182158,SLG,20,1.126548,-28.3595,1.123209,-142.3847,1.065088,94.9989,8.4885,-53.9408,8.4534,-172.6639,8.634,66.898
182158,SLG,30,1.123017,-27.1076,1.116781,-142.993,1.078541,95.0455,8.5142,-53.4699,8.4903,-172.6266,8.6104,67.0887
182158,SLG,40,1.120299,-26.4788,1.11413,-143.3181,1.085303,95.1013,8.5242,-53.2248,8.5087,-172.5964,8.5972,67.1783
182158,LL,0,0.812069,-32.5343,0.80566,-158.9552,1.244138,99.5711,9.0457,-60.2072,8.5958,-175.3274,9.4707,64.5303
182158,LL,10,1.042892,-30.9288,1.160614,-149.4088,1.084011,99.2464,8.605,-55.5886,8.3187,-175.5623,8.4688,66.1022
182158,LL,20,1.083192,-28.7015,1.144739,-146.4233,1.080876,97.2595,8.5855,-54.2721,8.4297,-174.2246,8.5147,66.6594
182158,LL,30,1.094821,-27.4474,1.133433,-145.6132,1.086752,96.5454,8.5782,-53.7085,8.4776,-173.6629,8.5342,66.8991
182158,LL,40,1.099503,-26.7722,1.127371,-145.2527,1.090641,96.2176,8.5721,-53.4112,8.5002,-173.3719,8.5415,67.0261
182158,3LG,0,0.832465,-35.9553,0.834576,-155.8066,0.832359,84.1641,9.4073,-63.7293,9.4348,176.2587,9.4194,56.1198
182158,3LG,10,1.090867,-28.5818,1.093386,-148.2843,1.087944,91.5528,8.4135,-56.3756,8.4331,-176.3812,8.4226,63.5062
182158,3LG,20,1.102099,-26.7793,1.103414,-146.481,1.098656,93.2941,8.4953,-54.5943,8.5156,-174.5959,8.5053,65.2865
182158,3LG,30,1.104876,-26.0967,1.105823,-145.809,1.101471,93.9528,8.5157,-53.9237,8.5362,-173.9236,8.526,65.957
182158,3LG,40,1.106018,-25.7401,1.106809,-145.4593,1.102678,94.2978,8.5242,-53.5736,8.5448,-173.5726,8.5347,66.3071
182162,SLG,0,0.781246,-36.706,1.340723,-145.5998,1.048204,106.4297,8.5462,-52.6314,8.8987,-170.7658,8.9724,66.3701
182162,SLG,10,1.121161,-32.3092,1.155046,-140.8425,1.023768,95.7682,8.4451,-54.8526,8.4105,-172.8082,8.6869,66.3655
182162,SLG,20,1.128355,-28.4984,1.123501,-142.2494,1.0627,94.9355,8.4857,-53.9883,8.4496,-172.6667,8.6363,66.8781
182162,SLG,30,1.124623,-27.1982,1.1167,-142.8958,1.07698,94.9889,8.5134,-53.5053,8.4878,-172.6327,8.6125,67.0776
182162,SLG,40,1.121655,-26.545,1.113956,-143.2435,1.08416,95.0536,8.524,-53.2523,8.5069,-172.6026,8.5989,67.171
182162,LL,0,0.832209,-32.1938,0.828104,-158.1933,1.236942,99.53,9.2278,-59.2284,8.7476,-176.3266,9.388,64.7234
182162,LL,10,1.042325,-30.7579,1.159472,-149.6415,1.086383,99.3302,8.6186,-55.5565,8.3287,-175.5951,8.4724,66.1227
182162,LL,20,1.082016,-28.8856,1.147421,-146.4814,1.079077,97.381,8.587,-54.3123,8.4268,-174.2858,8.5115,66.6351
182162,LL,30,1.094583,-27.59,1.135344,-145.6292,1.085136,96.6101,8.5802,-53.7413,8.4763,-173.7076,8.533,66.8797
182162,LL,40,1.099559,-26.8843,1.128802,-145.2558,1.089303,96.2581,8.574,-53.4379,8.4994,-173.4067,8.541,67.011
182162,3LG,0,0.852789,-35.3787,0.855079,-155.2079,0.852482,84.7492,9.7282,-63.1434,9.7579,176.8451,9.7414,56.6999
182162,3LG,10,1.09041,-28.6561,1.093045,-148.3581,1.087534,91.4843,8.4104,-56.4477,8.43,-176.4535,8.4195,63.434
182162,3LG,20,1.102129,-26.8417,1.103494,-146.5392,1.098635,93.2362,8.4955,-54.6537,8.5158,-174.6555,8.5055,65.2271
182162,3LG,30,1.104991,-26.1439,1.105954,-145.8528,1.101533,93.908,8.5165,-53.9689,8.537,-173.9689,8.5268,65.9117
182162,3LG,40,1.106146,-25.7776,1.106941,-145.4941,1.102759,94.2619,8.5251,-53.6096,8.5457,-173.6087,8.5355,66.271
